<?xml version="1.0" encoding="UTF-8"?>

<!-- generated on Mon May  3 10:06:12 2021 by Eclipse SUMO duarouter Version 1.1.0
<configuration xmlns:xsi="http://www.w3.org/2001/XMLSchema-instance" xsi:noNamespaceSchemaLocation="http://sumo.dlr.de/xsd/duarouterConfiguration.xsd">

    <input>
        <net-file value="downtown.net.xml"/>
        <route-files value="downtown.trips.xml"/>
    </input>

    <output>
        <output-file value="downtown.rou.xml"/>
        <alternatives-output value="downtown.rou.alt.xml"/>
    </output>

    <report>
        <ignore-errors value="true"/>
    </report>

</configuration>
-->

<routes xmlns:xsi="http://www.w3.org/2001/XMLSchema-instance" xsi:noNamespaceSchemaLocation="http://sumo.dlr.de/xsd/routes_file.xsd">
    <vehicle id="0" depart="0.00">
        <route edges="213546064#1 -213546064#1 -213546064#0 -213546060#1 -215885166#2 -215885171#1 -215885171#0 215795058#0 215795058#1 -11179939#0"/>
    </vehicle>
    <vehicle id="1" depart="1.00">
        <route edges="-47026124#9 47026124#9 -210585066#2 -210585066#1 -210585088#1 -11176415#4 -11176415#1 49846076#19 80776637#1 80776637#2 80776637#3 73538114#0 73538114#2 -213546060#1 -215885166#2 -215885171#1 -215885171#0"/>
    </vehicle>
    <vehicle id="2" depart="2.00">
        <route edges="423220349#1 215795055#0 215795055#1 215795055#2 215795055#3 215795055#4 215795055#5 215795055#6 215795058#0"/>
    </vehicle>
    <vehicle id="3" depart="3.00">
        <route edges="73541769#0 -73541769#0 -73541792 -47026378#7 -47026378#6 -47026378#5 -47026378#4 -47026378#3 -47026378#2 -47026378#1 -215671208#2 11179409#6 11179409#7 11179409#8 11179409#11 47026379#0 47026379#1 11197189#13 11197189#14 -11197189#14"/>
    </vehicle>
    <vehicle id="4" depart="4.00">
        <route edges="11176415#1 -11176415#1 -49846076#16 -49846076#13 -49846076#10 -49846076#8 -49846076#4 -49846076#2 -49846076#1 -49846076#0 -11192510#1 -11182195#1"/>
    </vehicle>
    <vehicle id="5" depart="5.00">
        <route edges="-215885158#7 -215885158#6 -215885158#5 -215885158#4 -215885158#3 -11176415#1 -49846076#16 -49846076#13 -49846076#10 -49846076#8 44035168#9 44035168#10 -11197189#6 -11197189#4 -11197189#1 11197189#1"/>
    </vehicle>
    <vehicle id="6" depart="6.00">
        <route edges="-11182195#1 11182195#1 11192510#1 49846076#0 49846076#1 49846076#2 49846076#4 49846076#8 49846076#10 49846076#13 49846076#16 11176415#1 215885158#3 215885158#4 -215885158#4"/>
    </vehicle>
    <vehicle id="7" depart="7.00">
        <route edges="215795044#2 -11176415#1 -49846076#16 -49846076#13 -49846076#10 -49846076#8 44035168#9 44035168#10 44035168#13 -11204339#0 11204339#0"/>
    </vehicle>
    <vehicle id="8" depart="8.00">
        <route edges="-215885158#8 80776632#11 -49846076#19 -49846076#16 -49846076#13 -49846076#10 -49846076#8 -49846076#4 -213546030#3 -213546030#1 -67596638#0 -67596637#2 -67596637#0 11192207#2 210328290#3"/>
    </vehicle>
    <vehicle id="9" depart="9.00">
        <route edges="47026378#7 -47026378#7 -47026378#6 -47026378#5 -47026378#4 -47026378#3 -47026378#2 -47026378#1 -215671208#2 -11179409#4 -11179409#3 -11179409#2 -11179409#1"/>
    </vehicle>
    <vehicle id="10" depart="10.00">
        <route edges="47026378#5 47026378#6 47026378#7 73541792 73540498#0 73540498#1 73540498#2 423220347#0 423220347#1 423220347#2 -80776637#3 -80776637#2 -80776637#1 -80776632#11 -215885158#7 -215885158#6 215885158#6"/>
    </vehicle>
    <vehicle id="11" depart="11.00">
        <route edges="-67596638#0 67596637#3 213546030#1 213546030#3 49846076#4 49846076#8 49846076#10 49846076#13 49846076#16 49846076#19 80776637#1 80776637#2 80776637#3 73538114#0 73538114#2 210328296#0 213546064#1 210328297#0 210328297#1 210328297#2 210328297#3 213546061#0 -213546061#0"/>
    </vehicle>
    <vehicle id="12" depart="12.00">
        <route edges="80664630#7 -80664630#7 -80664630#6 -80664630#5 -11176415#4 -11176415#1 49846076#19 80776637#1 80776637#2 80776637#3 -423220347#2 -423220347#1 -423220347#0 -73540498#2 -73540498#1"/>
    </vehicle>
    <vehicle id="13" depart="13.00">
        <route edges="-11198919#1 11198919#1 11198919#2 11198919#5 -11198919#5"/>
    </vehicle>
    <vehicle id="14" depart="14.00">
        <route edges="49846076#4 49846076#8 49846076#10 49846076#13 49846076#16 49846076#19 80776637#1 80776637#2 80776637#3 73538114#0 73538114#2 210328296#0 213546064#1 210328297#0 210328297#1 210328297#2 210328297#3"/>
    </vehicle>
    <vehicle id="15" depart="15.00">
        <route edges="47026378#6 47026378#7 73541792 73540498#0 73540498#1 73540498#2 423220347#0 423220347#1 423220347#2"/>
    </vehicle>
    <vehicle id="16" depart="16.00">
        <route edges="11198919#1 11198919#2 11198919#5 80776632#3"/>
    </vehicle>
    <vehicle id="17" depart="17.00">
        <route edges="-80664630#7 80664630#7 80664630#8 80664630#9 80664630#10 80664630#11 215795047#5 215795047#8 -49846076#10 -49846076#8 44035168#9 44035168#10 44035168#13 11204339#4"/>
    </vehicle>
    <vehicle id="18" depart="18.00">
        <route edges="47528851#5 11192510#1 49846076#0 49846076#1 49846076#2 49846076#4 49846076#8 49846076#10 49846076#13 49846076#16 49846076#19 80776637#1 80776637#2 80776637#3 73538114#0 73538114#2 210328288#0 213546019#1 213546019#2 213546019#3"/>
    </vehicle>
    <vehicle id="19" depart="19.00">
        <route edges="548603143#1 548603143#2 548603143#3 548603143#4 548603143#5 548603143#7 210328290#3 210328290#8 -80664630#11 -80664630#10 -80664630#9 -80664630#8 -80664630#7 -80664630#6 -80664630#5 210585088#1 11198919#1 11198919#2 11198919#5 127605064#0 127605064#1 127605064#4"/>
    </vehicle>
    <vehicle id="20" depart="20.00">
        <route edges="215885158#8 11192348#5 -80776637#3 -80776637#2 -80776637#1 -49846076#19 -49846076#16 -49846076#13 -49846076#10 -49846076#8 -49846076#4 -49846076#2 -49846076#1 -49846076#0 -11192510#1"/>
    </vehicle>
    <vehicle id="21" depart="21.00">
        <route edges="-215885169 215885168#1 215885171#0 215885171#1 215885166#2 215885166#3 -73538114#3 -73538114#0 -80776637#3 -80776637#2 -80776637#1 -49846076#19 11176415#1 -215885158#0 -215795044#1 -47026383#7 -47026383#6"/>
    </vehicle>
    <vehicle id="22" depart="22.00">
        <route edges="-11197189#1 47528851#4 47528851#5 11192510#1 49846076#0 49846076#1 49846076#2 49846076#4 49846076#8 49846076#10 49846076#13 49846076#16 49846076#19 80776637#1 80776637#2 80776637#3 -423220347#2 -423220347#1 -423220347#0 -423220349#1 -423220349#0"/>
    </vehicle>
    <vehicle id="23" depart="23.00">
        <route edges="-11203462#0 770576123#1 770576123#2 -215885170#2 -215885170#1 -73541769#2 -73541769#0 -73541792 -47026378#7 -47026378#6"/>
    </vehicle>
    <vehicle id="24" depart="24.00">
        <route edges="213546061#0 -213546061#0 -210328297#3 -210328297#2 -210328297#1 -210328297#0 47026382#0 47026382#1 80664630#1 80664630#3 80664630#5 -80664630#5"/>
    </vehicle>
</routes>
