<?xml version="1.0" encoding="UTF-8"?>

<!-- generated on Mon May  3 09:56:41 2021 by Eclipse SUMO netconvert Version 1.1.0
<configuration xmlns:xsi="http://www.w3.org/2001/XMLSchema-instance" xsi:noNamespaceSchemaLocation="http://sumo.dlr.de/xsd/netconvertConfiguration.xsd">

    <input>
        <osm-files value="downtown.osm"/>
    </input>

    <output>
        <output-file value="downtown.net.xml"/>
    </output>

    <projection>
        <proj.utm value="true"/>
    </projection>

    <processing>
        <geometry.remove value="true"/>
        <roundabouts.guess value="true"/>
    </processing>

    <tls_building>
        <tls.discard-simple value="true"/>
        <tls.join value="true"/>
        <tls.guess-signals value="true"/>
    </tls_building>

    <ramp_guessing>
        <ramps.guess value="true"/>
    </ramp_guessing>

    <junctions>
        <junctions.join value="true"/>
    </junctions>

</configuration>
-->

<net version="1.1" junctionCornerDetail="5" limitTurnSpeed="5.50" xmlns:xsi="http://www.w3.org/2001/XMLSchema-instance" xsi:noNamespaceSchemaLocation="http://sumo.dlr.de/xsd/net_file.xsd">

    <location netOffset="-462419.85,-3156516.68" convBoundary="0.00,0.00,2052.22,2007.45" origBoundary="-81.384137,28.534927,-81.363174,28.553024" projParameter="+proj=utm +zone=17 +ellps=WGS84 +datum=WGS84 +units=m +no_defs"/>

    <type id="highway.bridleway" priority="1" numLanes="1" speed="2.78" allow="pedestrian" oneway="1" width="2.00"/>
    <type id="highway.bus_guideway" priority="1" numLanes="1" speed="27.78" allow="bus" oneway="1"/>
    <type id="highway.cycleway" priority="1" numLanes="1" speed="8.33" allow="bicycle" oneway="0" width="1.00"/>
    <type id="highway.footway" priority="1" numLanes="1" speed="2.78" allow="pedestrian" oneway="1" width="2.00"/>
    <type id="highway.ford" priority="1" numLanes="1" speed="2.78" allow="army" oneway="0"/>
    <type id="highway.living_street" priority="3" numLanes="1" speed="2.78" disallow="tram rail_urban rail rail_electric ship" oneway="0"/>
    <type id="highway.motorway" priority="13" numLanes="2" speed="44.44" allow="private emergency authority army vip passenger hov taxi bus coach delivery truck trailer motorcycle evehicle custom1 custom2" oneway="1"/>
    <type id="highway.motorway_link" priority="12" numLanes="1" speed="22.22" allow="private emergency authority army vip passenger hov taxi bus coach delivery truck trailer motorcycle evehicle custom1 custom2" oneway="1"/>
    <type id="highway.path" priority="1" numLanes="1" speed="2.78" allow="bicycle pedestrian" oneway="1" width="2.00"/>
    <type id="highway.pedestrian" priority="1" numLanes="1" speed="2.78" allow="pedestrian" oneway="1" width="2.00"/>
    <type id="highway.primary" priority="9" numLanes="2" speed="27.78" disallow="tram rail_urban rail rail_electric ship" oneway="0"/>
    <type id="highway.primary_link" priority="8" numLanes="1" speed="22.22" disallow="tram rail_urban rail rail_electric ship" oneway="0"/>
    <type id="highway.raceway" priority="14" numLanes="2" speed="83.33" allow="vip" oneway="0"/>
    <type id="highway.residential" priority="4" numLanes="1" speed="13.89" disallow="tram rail_urban rail rail_electric ship" oneway="0"/>
    <type id="highway.secondary" priority="7" numLanes="2" speed="27.78" disallow="tram rail_urban rail rail_electric ship" oneway="0"/>
    <type id="highway.secondary_link" priority="6" numLanes="1" speed="22.22" disallow="tram rail_urban rail rail_electric ship" oneway="0"/>
    <type id="highway.service" priority="2" numLanes="1" speed="5.56" allow="delivery bicycle pedestrian" oneway="0"/>
    <type id="highway.stairs" priority="1" numLanes="1" speed="1.39" allow="pedestrian" oneway="1" width="2.00"/>
    <type id="highway.step" priority="1" numLanes="1" speed="1.39" allow="pedestrian" oneway="1" width="2.00"/>
    <type id="highway.steps" priority="1" numLanes="1" speed="1.39" allow="pedestrian" oneway="1" width="2.00"/>
    <type id="highway.tertiary" priority="6" numLanes="1" speed="22.22" disallow="tram rail_urban rail rail_electric ship" oneway="0"/>
    <type id="highway.tertiary_link" priority="5" numLanes="1" speed="22.22" disallow="tram rail_urban rail rail_electric ship" oneway="0"/>
    <type id="highway.track" priority="1" numLanes="1" speed="5.56" disallow="tram rail_urban rail rail_electric ship" oneway="0"/>
    <type id="highway.trunk" priority="11" numLanes="2" speed="27.78" disallow="tram rail_urban rail rail_electric bicycle pedestrian ship" oneway="0"/>
    <type id="highway.trunk_link" priority="10" numLanes="1" speed="22.22" disallow="tram rail_urban rail rail_electric bicycle pedestrian ship" oneway="0"/>
    <type id="highway.unclassified" priority="5" numLanes="1" speed="13.89" disallow="tram rail_urban rail rail_electric ship" oneway="0"/>
    <type id="highway.unsurfaced" priority="1" numLanes="1" speed="8.33" disallow="tram rail_urban rail rail_electric ship" oneway="0"/>
    <type id="railway.light_rail" priority="15" numLanes="1" speed="27.78" allow="rail_urban" oneway="1"/>
    <type id="railway.preserved" priority="15" numLanes="1" speed="27.78" allow="rail" oneway="1"/>
    <type id="railway.rail" priority="15" numLanes="1" speed="83.33" allow="rail rail_electric" oneway="1"/>
    <type id="railway.subway" priority="15" numLanes="1" speed="27.78" allow="rail_urban" oneway="1"/>
    <type id="railway.tram" priority="15" numLanes="1" speed="13.89" allow="tram" oneway="1"/>

    <edge id=":1411916029_0" function="internal">
        <lane id=":1411916029_0_0" index="0" allow="delivery bicycle pedestrian" speed="5.03" length="5.01" shape="753.70,885.26 752.33,885.44 751.36,886.01 750.77,886.98 750.57,888.34"/>
    </edge>
    <edge id=":1411916029_1" function="internal">
        <lane id=":1411916029_1_0" index="0" disallow="tram rail_urban rail rail_electric ship" speed="13.89" length="6.20" shape="753.70,885.26 747.49,885.19"/>
    </edge>
    <edge id=":1600625627_0" function="internal">
        <lane id=":1600625627_0_0" index="0" disallow="tram rail_urban rail rail_electric ship" speed="13.89" length="5.00" shape="1392.23,1100.00 1392.15,1105.00"/>
    </edge>
    <edge id=":1600625627_1" function="internal">
        <lane id=":1600625627_1_0" index="0" disallow="tram rail_urban rail rail_electric ship" speed="3.65" length="2.34" shape="1392.23,1100.00 1391.41,1101.19 1390.60,1101.57"/>
    </edge>
    <edge id=":1600625627_4" function="internal">
        <lane id=":1600625627_4_0" index="0" disallow="tram rail_urban rail rail_electric ship" speed="3.65" length="2.34" shape="1390.60,1101.57 1389.81,1101.16 1389.03,1099.95"/>
    </edge>
    <edge id=":1600625627_2" function="internal">
        <lane id=":1600625627_2_0" index="0" disallow="tram rail_urban rail rail_electric ship" speed="13.89" length="5.00" shape="1388.95,1104.95 1389.03,1099.95"/>
    </edge>
    <edge id=":1600625627_3" function="internal">
        <lane id=":1600625627_3_0" index="0" disallow="tram rail_urban rail rail_electric ship" speed="3.65" length="2.34" shape="1388.95,1104.95 1389.77,1103.76 1390.58,1103.38"/>
    </edge>
    <edge id=":1600625627_5" function="internal">
        <lane id=":1600625627_5_0" index="0" disallow="tram rail_urban rail rail_electric ship" speed="3.65" length="2.34" shape="1390.58,1103.38 1391.37,1103.79 1392.15,1105.00"/>
    </edge>
    <edge id=":2232217258_0" function="internal">
        <lane id=":2232217258_0_0" index="0" disallow="tram rail_urban rail rail_electric ship" speed="22.22" length="8.00" shape="1540.56,434.89 1540.50,442.89"/>
    </edge>
    <edge id=":2232217258_1" function="internal">
        <lane id=":2232217258_1_0" index="0" disallow="tram rail_urban rail rail_electric ship" speed="3.65" length="2.34" shape="1540.56,434.89 1539.75,436.08 1538.95,436.48"/>
    </edge>
    <edge id=":2232217258_5" function="internal">
        <lane id=":2232217258_5_0" index="0" disallow="tram rail_urban rail rail_electric ship" speed="3.65" length="2.34" shape="1538.95,436.48 1538.15,436.07 1537.36,434.87"/>
    </edge>
    <edge id=":2232217258_2" function="internal">
        <lane id=":2232217258_2_0" index="0" disallow="tram rail_urban rail rail_electric ship" speed="22.22" length="8.40" shape="1537.30,442.87 1536.82,440.40 1535.73,438.86 1534.64,437.31 1534.16,434.85"/>
        <lane id=":2232217258_2_1" index="1" disallow="tram rail_urban rail rail_electric ship" speed="22.22" length="8.40" shape="1537.30,442.87 1537.36,434.87"/>
    </edge>
    <edge id=":2232217258_4" function="internal">
        <lane id=":2232217258_4_0" index="0" disallow="tram rail_urban rail rail_electric ship" speed="3.65" length="2.34" shape="1537.30,442.87 1538.11,441.67 1538.92,441.28"/>
    </edge>
    <edge id=":2232217258_6" function="internal">
        <lane id=":2232217258_6_0" index="0" disallow="tram rail_urban rail rail_electric ship" speed="3.65" length="2.34" shape="1538.92,441.28 1539.71,441.68 1540.50,442.89"/>
    </edge>
    <edge id=":2232217260_0" function="internal">
        <lane id=":2232217260_0_0" index="0" disallow="tram rail_urban rail rail_electric ship" speed="9.72" length="12.67" shape="927.06,721.03 924.34,718.89 921.95,716.99 919.39,715.67 916.15,715.27"/>
    </edge>
    <edge id=":2232217260_1" function="internal">
        <lane id=":2232217260_1_0" index="0" disallow="tram rail_urban rail rail_electric ship" speed="7.05" length="18.21" shape="927.06,721.03 922.52,717.11 921.47,714.19 923.91,712.28 929.85,711.37"/>
    </edge>
    <edge id=":2232217260_2" function="internal">
        <lane id=":2232217260_2_0" index="0" allow="delivery bicycle pedestrian" speed="3.65" length="4.67" shape="927.06,721.03 926.54,719.69 926.68,718.80 927.46,718.38 928.91,718.42"/>
    </edge>
    <edge id=":2232217260_3" function="internal">
        <lane id=":2232217260_3_0" index="0" allow="delivery bicycle pedestrian" speed="4.74" length="7.25" shape="930.02,714.57 927.65,714.93 926.68,715.69 927.10,716.85 928.91,718.42"/>
    </edge>
    <edge id=":2232217260_4" function="internal">
        <lane id=":2232217260_4_0" index="0" disallow="tram rail_urban rail rail_electric ship" speed="13.89" length="13.88" shape="930.02,714.57 916.15,715.27"/>
    </edge>
    <edge id=":2232217260_5" function="internal">
        <lane id=":2232217260_5_0" index="0" disallow="tram rail_urban rail rail_electric ship" speed="3.65" length="2.34" shape="930.02,714.57 928.78,713.83 928.33,713.05"/>
    </edge>
    <edge id=":2232217260_9" function="internal">
        <lane id=":2232217260_9_0" index="0" disallow="tram rail_urban rail rail_electric ship" speed="3.65" length="2.34" shape="928.33,713.05 928.69,712.23 929.85,711.37"/>
    </edge>
    <edge id=":2232217260_6" function="internal">
        <lane id=":2232217260_6_0" index="0" disallow="tram rail_urban rail rail_electric ship" speed="13.89" length="13.86" shape="916.01,712.07 929.85,711.37"/>
    </edge>
    <edge id=":2232217260_7" function="internal">
        <lane id=":2232217260_7_0" index="0" allow="delivery bicycle pedestrian" speed="9.72" length="5.56" shape="916.01,712.07 919.56,712.56 921.35,713.40"/>
    </edge>
    <edge id=":2232217260_8" function="internal">
        <lane id=":2232217260_8_0" index="0" disallow="tram rail_urban rail rail_electric ship" speed="3.65" length="2.34" shape="916.01,712.07 917.24,712.82 917.68,713.60"/>
    </edge>
    <edge id=":2232217260_10" function="internal">
        <lane id=":2232217260_10_0" index="0" allow="delivery bicycle pedestrian" speed="9.72" length="9.09" shape="921.35,713.40 922.80,714.08 925.87,716.18 928.91,718.42"/>
    </edge>
    <edge id=":2232217260_11" function="internal">
        <lane id=":2232217260_11_0" index="0" disallow="tram rail_urban rail rail_electric ship" speed="3.65" length="2.34" shape="917.68,713.60 917.31,714.41 916.15,715.27"/>
    </edge>
    <edge id=":2232217268_0" function="internal">
        <lane id=":2232217268_0_0" index="0" disallow="tram rail_urban rail rail_electric ship" speed="3.65" length="4.67" shape="1533.14,1258.37 1532.33,1259.56 1531.52,1259.95 1530.73,1259.54 1529.94,1258.34"/>
    </edge>
    <edge id=":2252343228_0" function="internal">
        <lane id=":2252343228_0_0" index="0" disallow="tram rail_urban rail rail_electric ship" speed="3.65" length="4.67" shape="1755.66,967.35 1756.85,968.16 1757.24,968.97 1756.83,969.76 1755.62,970.55"/>
    </edge>
    <edge id=":3413882566_0" function="internal">
        <lane id=":3413882566_0_0" index="0" disallow="tram rail_urban rail rail_electric ship" speed="13.89" length="5.69" shape="720.17,1302.69 718.59,1303.29 717.50,1303.67 716.38,1303.99 714.74,1304.38"/>
    </edge>
    <edge id=":3413882566_1" function="internal">
        <lane id=":3413882566_1_0" index="0" disallow="tram rail_urban rail rail_electric ship" speed="3.65" length="2.34" shape="720.17,1302.69 718.76,1302.37 718.10,1301.77"/>
    </edge>
    <edge id=":3413882566_4" function="internal">
        <lane id=":3413882566_4_0" index="0" disallow="tram rail_urban rail rail_electric ship" speed="3.65" length="2.34" shape="718.10,1301.77 718.19,1300.88 719.03,1299.70"/>
    </edge>
    <edge id=":3413882566_2" function="internal">
        <lane id=":3413882566_2_0" index="0" disallow="tram rail_urban rail rail_electric ship" speed="13.89" length="5.26" shape="714.02,1301.26 715.53,1300.90 716.56,1300.61 717.57,1300.26 719.03,1299.70"/>
    </edge>
    <edge id=":3413882566_3" function="internal">
        <lane id=":3413882566_3_0" index="0" disallow="tram rail_urban rail rail_electric ship" speed="3.65" length="2.34" shape="714.02,1301.26 715.37,1301.77 715.94,1302.46"/>
    </edge>
    <edge id=":3413882566_5" function="internal">
        <lane id=":3413882566_5_0" index="0" disallow="tram rail_urban rail rail_electric ship" speed="3.65" length="2.34" shape="715.94,1302.46 715.73,1303.33 714.74,1304.38"/>
    </edge>
    <edge id=":4621333638_0" function="internal">
        <lane id=":4621333638_0_0" index="0" allow="delivery bicycle pedestrian" speed="3.65" length="4.67" shape="1034.22,541.49 1033.03,540.68 1032.64,539.87 1033.05,539.08 1034.26,538.29"/>
    </edge>
    <edge id=":5367573455_0" function="internal">
        <lane id=":5367573455_0_0" index="0" allow="delivery bicycle pedestrian" speed="5.56" length="3.71" shape="508.71,448.53 508.65,452.25"/>
    </edge>
    <edge id=":5367573493_0" function="internal">
        <lane id=":5367573493_0_0" index="0" disallow="tram rail_urban rail rail_electric ship" speed="11.18" length="5.23" shape="515.60,363.44 517.91,358.76"/>
        <lane id=":5367573493_0_1" index="1" disallow="tram rail_urban rail rail_electric ship" speed="11.18" length="5.23" shape="518.47,364.86 520.78,360.17"/>
        <lane id=":5367573493_0_2" index="2" disallow="tram rail_urban rail rail_electric ship" speed="11.18" length="5.23" shape="521.35,366.27 523.65,361.58"/>
    </edge>
    <edge id=":5367573511_0" function="internal">
        <lane id=":5367573511_0_0" index="0" disallow="tram rail_urban rail rail_electric ship" speed="3.65" length="4.67" shape="390.59,606.00 389.40,605.18 389.01,604.38 389.42,603.58 390.63,602.80"/>
    </edge>
    <edge id=":5367573817_0" function="internal">
        <lane id=":5367573817_0_0" index="0" allow="delivery bicycle pedestrian" speed="5.56" length="0.24" shape="652.59,870.96 652.59,871.20"/>
    </edge>
    <edge id=":5367573817_1" function="internal">
        <lane id=":5367573817_1_0" index="0" allow="delivery bicycle pedestrian" speed="3.65" length="2.34" shape="652.59,870.96 651.80,872.17 651.00,872.58"/>
    </edge>
    <edge id=":5367573817_4" function="internal">
        <lane id=":5367573817_4_0" index="0" allow="delivery bicycle pedestrian" speed="3.65" length="2.34" shape="651.00,872.58 650.20,872.18 649.39,870.99"/>
    </edge>
    <edge id=":5367573817_2" function="internal">
        <lane id=":5367573817_2_0" index="0" allow="delivery bicycle pedestrian" speed="5.56" length="0.42" shape="649.37,871.41 649.39,870.99"/>
    </edge>
    <edge id=":5367573817_3" function="internal">
        <lane id=":5367573817_3_0" index="0" allow="delivery bicycle pedestrian" speed="3.72" length="2.36" shape="649.37,871.41 650.09,870.15 650.87,869.70"/>
    </edge>
    <edge id=":5367573817_5" function="internal">
        <lane id=":5367573817_5_0" index="0" allow="delivery bicycle pedestrian" speed="3.72" length="2.36" shape="650.87,869.70 651.70,870.04 652.59,871.20"/>
    </edge>
    <edge id=":5367573827_0" function="internal">
        <lane id=":5367573827_0_0" index="0" allow="delivery bicycle pedestrian" speed="5.56" length="0.15" shape="650.69,984.59 650.68,984.74"/>
    </edge>
    <edge id=":5367573827_1" function="internal">
        <lane id=":5367573827_1_0" index="0" allow="delivery bicycle pedestrian" speed="3.65" length="2.34" shape="650.69,984.59 649.88,985.79 649.08,986.18"/>
    </edge>
    <edge id=":5367573827_4" function="internal">
        <lane id=":5367573827_4_0" index="0" allow="delivery bicycle pedestrian" speed="3.65" length="2.34" shape="649.08,986.18 648.28,985.78 647.49,984.57"/>
    </edge>
    <edge id=":5367573827_2" function="internal">
        <lane id=":5367573827_2_0" index="0" allow="delivery bicycle pedestrian" speed="5.56" length="0.33" shape="647.49,984.90 647.49,984.57"/>
    </edge>
    <edge id=":5367573827_3" function="internal">
        <lane id=":5367573827_3_0" index="0" allow="delivery bicycle pedestrian" speed="3.68" length="2.34" shape="647.49,984.90 648.23,983.66 649.00,983.22"/>
    </edge>
    <edge id=":5367573827_5" function="internal">
        <lane id=":5367573827_5_0" index="0" allow="delivery bicycle pedestrian" speed="3.68" length="2.34" shape="649.00,983.22 649.82,983.58 650.68,984.74"/>
    </edge>
    <edge id=":5367573883_0" function="internal">
        <lane id=":5367573883_0_0" index="0" allow="delivery bicycle pedestrian" speed="5.56" length="3.93" shape="653.81,453.29 653.98,449.36"/>
    </edge>
    <edge id=":5368780760_0" function="internal">
        <lane id=":5368780760_0_0" index="0" allow="delivery bicycle pedestrian" speed="5.56" length="3.96" shape="655.07,716.21 654.87,720.16"/>
    </edge>
    <edge id=":5368780761_0" function="internal">
        <lane id=":5368780761_0_0" index="0" allow="delivery bicycle pedestrian" speed="5.56" length="4.12" shape="649.87,720.03 650.08,715.92"/>
    </edge>
    <edge id=":5368781625_0" function="internal">
        <lane id=":5368781625_0_0" index="0" disallow="tram rail_urban rail rail_electric ship" speed="22.22" length="7.03" shape="245.35,795.27 238.32,795.42"/>
        <lane id=":5368781625_0_1" index="1" disallow="tram rail_urban rail rail_electric ship" speed="22.22" length="7.03" shape="245.28,792.07 238.25,792.22"/>
    </edge>
    <edge id=":5368781625_2" function="internal">
        <lane id=":5368781625_2_0" index="0" disallow="tram rail_urban rail rail_electric ship" speed="3.65" length="2.34" shape="245.28,792.07 244.07,791.29 243.65,790.50"/>
    </edge>
    <edge id=":5368781625_5" function="internal">
        <lane id=":5368781625_5_0" index="0" disallow="tram rail_urban rail rail_electric ship" speed="3.65" length="2.34" shape="243.65,790.50 244.03,789.69 245.22,788.87"/>
    </edge>
    <edge id=":5368781625_3" function="internal">
        <lane id=":5368781625_3_0" index="0" disallow="tram rail_urban rail rail_electric ship" speed="22.22" length="7.03" shape="238.19,789.02 245.22,788.87"/>
    </edge>
    <edge id=":5368781625_4" function="internal">
        <lane id=":5368781625_4_0" index="0" disallow="tram rail_urban rail rail_electric ship" speed="3.65" length="2.34" shape="238.19,789.02 239.40,789.79 239.82,790.58"/>
    </edge>
    <edge id=":5368781625_6" function="internal">
        <lane id=":5368781625_6_0" index="0" disallow="tram rail_urban rail rail_electric ship" speed="3.65" length="2.34" shape="239.82,790.58 239.44,791.39 238.25,792.22"/>
    </edge>
    <edge id=":5368781767_0" function="internal">
        <lane id=":5368781767_0_0" index="0" allow="delivery bicycle pedestrian" speed="5.56" length="5.13" shape="726.67,470.13 726.63,465.00"/>
    </edge>
    <edge id=":5368781767_1" function="internal">
        <lane id=":5368781767_1_0" index="0" allow="delivery bicycle pedestrian" speed="3.65" length="2.34" shape="726.67,470.13 727.46,468.93 728.25,468.52"/>
    </edge>
    <edge id=":5368781767_4" function="internal">
        <lane id=":5368781767_4_0" index="0" allow="delivery bicycle pedestrian" speed="3.65" length="2.34" shape="728.25,468.52 729.06,468.91 729.87,470.11"/>
    </edge>
    <edge id=":5368781767_2" function="internal">
        <lane id=":5368781767_2_0" index="0" allow="delivery bicycle pedestrian" speed="5.56" length="5.13" shape="729.83,464.97 729.87,470.11"/>
    </edge>
    <edge id=":5368781767_3" function="internal">
        <lane id=":5368781767_3_0" index="0" allow="delivery bicycle pedestrian" speed="3.65" length="2.34" shape="729.83,464.97 729.03,466.18 728.24,466.59"/>
    </edge>
    <edge id=":5368781767_5" function="internal">
        <lane id=":5368781767_5_0" index="0" allow="delivery bicycle pedestrian" speed="3.65" length="2.34" shape="728.24,466.59 727.43,466.19 726.63,465.00"/>
    </edge>
    <edge id=":5368781770_0" function="internal">
        <lane id=":5368781770_0_0" index="0" allow="delivery bicycle pedestrian" speed="5.56" length="5.05" shape="728.04,595.74 728.03,600.78"/>
    </edge>
    <edge id=":5368781831_0" function="internal">
        <lane id=":5368781831_0_0" index="0" disallow="tram rail_urban rail rail_electric ship" speed="13.89" length="4.63" shape="721.89,1186.70 721.01,1182.16"/>
    </edge>
    <edge id=":5368781831_1" function="internal">
        <lane id=":5368781831_1_0" index="0" disallow="tram rail_urban rail rail_electric ship" speed="3.65" length="2.20" shape="721.89,1186.70 722.56,1185.42 723.20,1185.01"/>
    </edge>
    <edge id=":5368781831_4" function="internal">
        <lane id=":5368781831_4_0" index="0" disallow="tram rail_urban rail rail_electric ship" speed="3.65" length="2.48" shape="723.20,1185.01 723.31,1184.93 724.16,1185.24 725.09,1186.35"/>
    </edge>
    <edge id=":5368781831_2" function="internal">
        <lane id=":5368781831_2_0" index="0" disallow="tram rail_urban rail rail_electric ship" speed="13.89" length="4.89" shape="724.15,1181.54 725.09,1186.35"/>
    </edge>
    <edge id=":5368781831_3" function="internal">
        <lane id=":5368781831_3_0" index="0" disallow="tram rail_urban rail rail_electric ship" speed="3.65" length="2.34" shape="724.15,1181.54 723.60,1182.87 722.89,1183.42"/>
    </edge>
    <edge id=":5368781831_5" function="internal">
        <lane id=":5368781831_5_0" index="0" disallow="tram rail_urban rail rail_electric ship" speed="3.65" length="2.34" shape="722.89,1183.42 722.03,1183.18 721.01,1182.16"/>
    </edge>
    <edge id=":5368781849_0" function="internal">
        <lane id=":5368781849_0_0" index="0" allow="delivery bicycle pedestrian" speed="5.56" length="3.72" shape="651.67,615.42 651.63,611.70"/>
    </edge>
    <edge id=":5368782088_0" function="internal">
        <lane id=":5368782088_0_0" index="0" allow="delivery bicycle pedestrian" speed="5.56" length="3.86" shape="648.91,815.66 649.00,811.81"/>
    </edge>
    <edge id=":5368782088_1" function="internal">
        <lane id=":5368782088_1_0" index="0" allow="delivery bicycle pedestrian" speed="3.65" length="2.34" shape="648.91,815.66 649.74,814.48 650.55,814.10"/>
    </edge>
    <edge id=":5368782088_4" function="internal">
        <lane id=":5368782088_4_0" index="0" allow="delivery bicycle pedestrian" speed="3.65" length="2.34" shape="650.55,814.10 651.34,814.52 652.11,815.74"/>
    </edge>
    <edge id=":5368782088_2" function="internal">
        <lane id=":5368782088_2_0" index="0" allow="delivery bicycle pedestrian" speed="5.56" length="2.76" shape="652.17,812.98 652.11,815.74"/>
    </edge>
    <edge id=":5368782088_3" function="internal">
        <lane id=":5368782088_3_0" index="0" allow="delivery bicycle pedestrian" speed="3.72" length="1.92" shape="652.17,812.98 650.94,813.88 650.55,813.92"/>
    </edge>
    <edge id=":5368782088_5" function="internal">
        <lane id=":5368782088_5_0" index="0" allow="delivery bicycle pedestrian" speed="3.72" length="3.02" shape="650.55,813.92 650.00,813.98 649.35,813.29 649.00,811.81"/>
    </edge>
    <edge id=":5368782116_0" function="internal">
        <lane id=":5368782116_0_0" index="0" allow="delivery bicycle pedestrian" speed="5.56" length="5.16" shape="647.88,1083.91 647.09,1089.00"/>
    </edge>
    <edge id=":5368782116_1" function="internal">
        <lane id=":5368782116_1_0" index="0" allow="delivery bicycle pedestrian" speed="3.65" length="2.34" shape="647.88,1083.91 646.94,1085.01 646.10,1085.31"/>
    </edge>
    <edge id=":5368782116_4" function="internal">
        <lane id=":5368782116_4_0" index="0" allow="delivery bicycle pedestrian" speed="3.65" length="2.34" shape="646.10,1085.31 645.35,1084.82 644.70,1083.54"/>
    </edge>
    <edge id=":5368782116_2" function="internal">
        <lane id=":5368782116_2_0" index="0" allow="delivery bicycle pedestrian" speed="5.56" length="5.04" shape="643.93,1088.52 644.70,1083.54"/>
    </edge>
    <edge id=":5368782116_3" function="internal">
        <lane id=":5368782116_3_0" index="0" allow="delivery bicycle pedestrian" speed="3.65" length="2.34" shape="643.93,1088.52 644.91,1087.45 645.76,1087.18"/>
    </edge>
    <edge id=":5368782116_5" function="internal">
        <lane id=":5368782116_5_0" index="0" allow="delivery bicycle pedestrian" speed="3.65" length="2.34" shape="645.76,1087.18 646.49,1087.70 647.09,1089.00"/>
    </edge>
    <edge id=":5368782567_0" function="internal">
        <lane id=":5368782567_0_0" index="0" disallow="tram rail_urban rail rail_electric ship" speed="13.89" length="5.04" shape="797.67,885.78 792.63,885.72"/>
    </edge>
    <edge id=":5369071460_0" function="internal">
        <lane id=":5369071460_0_0" index="0" allow="delivery bicycle pedestrian" speed="5.56" length="5.02" shape="508.69,1230.41 503.67,1230.35"/>
    </edge>
    <edge id=":5369071460_1" function="internal">
        <lane id=":5369071460_1_0" index="0" allow="delivery bicycle pedestrian" speed="3.65" length="2.34" shape="508.69,1230.41 507.50,1229.59 507.11,1228.79"/>
    </edge>
    <edge id=":5369071460_4" function="internal">
        <lane id=":5369071460_4_0" index="0" allow="delivery bicycle pedestrian" speed="3.65" length="2.34" shape="507.11,1228.79 507.51,1227.99 508.72,1227.21"/>
    </edge>
    <edge id=":5369071460_2" function="internal">
        <lane id=":5369071460_2_0" index="0" allow="delivery bicycle pedestrian" speed="5.56" length="5.01" shape="503.71,1227.15 508.72,1227.21"/>
    </edge>
    <edge id=":5369071460_3" function="internal">
        <lane id=":5369071460_3_0" index="0" allow="delivery bicycle pedestrian" speed="3.65" length="2.34" shape="503.71,1227.15 504.90,1227.96 505.29,1228.77"/>
    </edge>
    <edge id=":5369071460_5" function="internal">
        <lane id=":5369071460_5_0" index="0" allow="delivery bicycle pedestrian" speed="3.65" length="2.34" shape="505.29,1228.77 504.88,1229.56 503.67,1230.35"/>
    </edge>
    <edge id=":5369071467_0" function="internal">
        <lane id=":5369071467_0_0" index="0" allow="delivery bicycle pedestrian" speed="5.56" length="5.00" shape="571.95,1088.16 571.98,1083.16"/>
    </edge>
    <edge id=":5369071470_0" function="internal">
        <lane id=":5369071470_0_0" index="0" allow="delivery bicycle pedestrian" speed="5.56" length="5.04" shape="582.51,1083.23 582.49,1088.26"/>
    </edge>
    <edge id=":5369071485_0" function="internal">
        <lane id=":5369071485_0_0" index="0" allow="delivery bicycle pedestrian" speed="3.65" length="4.67" shape="419.95,1116.37 418.77,1115.56 418.38,1114.75 418.79,1113.96 420.00,1113.18"/>
    </edge>
    <edge id=":5369071488_0" function="internal">
        <lane id=":5369071488_0_0" index="0" allow="delivery bicycle pedestrian" speed="3.65" length="4.67" shape="420.15,1097.91 418.95,1097.10 418.55,1096.30 418.96,1095.50 420.16,1094.71"/>
    </edge>
    <edge id=":5369071516_0" function="internal">
        <lane id=":5369071516_0_0" index="0" allow="delivery bicycle pedestrian" speed="3.65" length="4.67" shape="480.22,1213.68 481.41,1214.48 481.81,1215.28 481.41,1216.08 480.21,1216.88"/>
    </edge>
    <edge id=":5369071624_0" function="internal">
        <lane id=":5369071624_0_0" index="0" allow="delivery bicycle pedestrian" speed="3.65" length="4.67" shape="429.47,1231.11 428.26,1230.32 427.85,1229.53 428.24,1228.72 429.43,1227.91"/>
    </edge>
    <edge id=":5369071626_0" function="internal">
        <lane id=":5369071626_0_0" index="0" allow="delivery bicycle pedestrian" speed="3.65" length="4.67" shape="432.42,1212.28 431.36,1211.30 431.08,1210.45 431.60,1209.72 432.91,1209.12"/>
    </edge>
    <edge id=":5369264452_0" function="internal">
        <lane id=":5369264452_0_0" index="0" allow="delivery bicycle pedestrian" speed="5.56" length="4.67" shape="735.55,1235.67 730.88,1235.62"/>
    </edge>
    <edge id=":5369264452_1" function="internal">
        <lane id=":5369264452_1_0" index="0" allow="delivery bicycle pedestrian" speed="3.65" length="2.34" shape="735.55,1235.67 734.36,1234.86 733.97,1234.06"/>
    </edge>
    <edge id=":5369264452_4" function="internal">
        <lane id=":5369264452_4_0" index="0" allow="delivery bicycle pedestrian" speed="3.65" length="2.34" shape="733.97,1234.06 734.37,1233.26 735.58,1232.47"/>
    </edge>
    <edge id=":5369264452_2" function="internal">
        <lane id=":5369264452_2_0" index="0" allow="delivery bicycle pedestrian" speed="5.56" length="4.67" shape="730.91,1232.42 735.58,1232.47"/>
    </edge>
    <edge id=":5369264452_3" function="internal">